LTspice 24.0.12 for Windows
Circuit: * C:\GitHub\BLUE_backyard\major_projects\FOKA_SimpleDiodeDriver\Spice\Schematic.asc
Start Time: Fri Jan 31 10:41:32 2025
solver = Normal
Maximum thread count: 8
tnom = 27
temp = 27
method = modified trap
Direct Newton iteration for .op point succeeded.
Total elapsed time: 0.086 seconds.

